
     RDKit          3D

 25 26  0  0  0  0  0  0  0  0999 V2000
   10.6686   14.5619   17.1091 C   0  0  0  0  0  0  0  0  0  0  0  0
    9.9956   15.4248   17.7566 O   0  0  0  0  0  1  0  0  0  0  0  0
   11.8663   14.6480   16.7021 O   0  0  0  0  0  0  0  0  0  0  0  0
    9.9027   13.2339   16.7832 C   0  0  0  0  0  0  0  0  0  0  0  0
    9.5669   12.9755   15.3031 C   0  0  0  0  0  0  0  0  0  0  0  0
   10.9039   12.1430   17.2263 C   0  0  0  0  0  0  0  0  0  0  0  0
    8.7252   13.0406   17.6236 O   0  0  0  0  0  0  0  0  0  0  0  0
    7.8907   11.9777   17.4424 C   0  0  0  0  0  0  0  0  0  0  0  0
    6.7055   12.2814   16.7632 C   0  0  0  0  0  0  0  0  0  0  0  0
    5.7522   11.2923   16.5047 C   0  0  0  0  0  0  0  0  0  0  0  0
    5.9716    9.9740   16.9269 C   0  0  0  0  0  0  0  0  0  0  0  0
    8.1099   10.6634   17.8484 C   0  0  0  0  0  0  0  0  0  0  0  0
    7.1572    9.6706   17.6049 C   0  0  0  0  0  0  0  0  0  0  0  0
    4.9856    8.8793   16.5925 C   0  0  0  0  0  0  0  0  0  0  0  0
    3.5143    9.1514   16.9205 C   0  0  0  0  0  0  0  0  0  0  0  0
    2.8795    9.9326   16.1992 O   0  0  0  0  0  0  0  0  0  0  0  0
    2.9991    8.4732   18.0098 N   0  0  0  0  0  0  0  0  0  0  0  0
    1.7562    7.8144   18.1230 C   0  0  0  0  0  0  0  0  0  0  0  0
    1.0018    7.3686   17.0338 C   0  0  0  0  0  0  0  0  0  0  0  0
   -0.2385    6.7391   17.2314 C   0  0  0  0  0  0  0  0  0  0  0  0
   -0.7123    6.5424   18.5381 C   0  0  0  0  0  0  0  0  0  0  0  0
    1.2595    7.6187   19.4223 C   0  0  0  0  0  0  0  0  0  0  0  0
    0.0378    6.9682   19.6383 C   0  0  0  0  0  0  0  0  0  0  0  0
   -1.0324    6.2788   16.0467 C   0  0  0  0  0  0  0  0  0  0  0  0
   -0.4723    6.7792   21.0346 C   0  0  0  0  0  0  0  0  0  0  0  0
  1  3  2  0
  1  2  1  0
  4  7  1  0
  4  1  1  0
  5  4  1  0
  6  4  1  0
  7  8  1  0
  8  9  4  0
  9 10  4  0
 11 10  4  0
 11 14  1  0
 12  8  4  0
 12 13  4  0
 13 11  4  0
 14 15  1  0
 15 17  1  0
 15 16  2  0
 17 18  1  0
 18 19  4  0
 18 22  4  0
 19 20  4  0
 20 24  1  0
 20 21  4  0
 22 23  4  0
 23 21  4  0
 23 25  1  0
M  RAD  1   2   2
M  END
