
     RDKit          3D

 10 11  0  0  0  0  0  0  0  0999 V2000
  -11.1872   -4.6618    6.6614 C   0  0  0  0  0  0  0  0  0  0  0  0
  -10.9293   -4.1979    5.2677 C   0  0  0  0  0  0  0  0  0  0  0  0
  -11.8617   -3.7153    4.4212 C   0  0  0  0  0  0  0  0  0  0  0  0
  -11.4806   -3.2509    3.0297 C   0  0  0  0  0  0  0  0  0  0  0  0
   -9.9625   -3.4451    2.8263 C   0  0  0  0  0  0  0  0  0  0  0  0
   -9.5473   -4.8862    3.2734 C   0  0  0  0  0  0  0  0  0  0  0  0
   -9.5251   -4.2701    4.7203 C   0  0  0  0  0  0  0  0  0  0  0  0
   -9.0387   -2.9254    4.0142 C   0  0  0  0  0  0  0  0  0  0  0  0
   -7.5312   -2.8722    3.6952 C   0  0  0  0  0  0  0  0  0  0  0  0
   -9.4154   -1.5892    4.6678 C   0  0  0  0  0  0  0  0  0  0  0  0
  1  2  1  0
  2  3  2  0
  3  4  1  0
  5  4  1  0
  5  6  1  0
  7  6  1  0
  7  8  1  0
  8  9  1  0
  8 10  1  0
  7  2  1  0
  8  5  1  0
M  END
