
     RDKit          3D

 10 11  0  0  0  0  0  0  0  0999 V2000
   12.3686   25.5502    5.6987 C   0  0  0  0  0  0  0  0  0  0  0  0
   12.6236   24.3389    4.7912 C   0  0  0  0  0  0  0  0  0  0  0  0
   11.8069   23.0690    5.2043 C   0  0  0  0  0  0  0  0  0  0  0  0
   11.9580   22.7408    6.7072 C   0  0  0  0  0  0  0  0  0  0  0  0
   13.4285   22.2975    6.8193 C   0  0  0  0  0  0  0  0  0  0  0  0
   13.9081   22.3253    5.3585 C   0  0  0  0  0  0  0  0  0  0  0  0
   12.6417   21.9265    4.6038 C   0  0  0  0  0  0  0  0  0  0  0  0
   14.0367   23.7792    4.9388 C   0  0  0  0  0  0  0  0  0  0  0  0
   15.1909   24.4173    4.7095 C   0  0  0  0  0  0  0  0  0  0  0  0
   12.3146   24.7419    3.3375 C   0  0  0  0  0  0  0  0  0  0  0  0
  1  2  1  0
  2  3  1  0
  3  4  1  0
  4  5  1  0
  6  5  1  0
  6  7  1  0
  6  8  1  0
  8  9  2  3
  2 10  1  0
  8  2  1  0
  7  3  1  0
M  END
