
     RDKit          3D

 15 16  0  0  0  0  0  0  0  0999 V2000
   32.4732   27.1884   91.1339 C   0  0  0  0  0  0  0  0  0  0  0  0
   33.1180   27.6476   89.8203 C   0  0  2  0  0  0  0  0  0  0  0  0
   32.8700   29.1497   89.6254 C   0  0  0  0  0  0  0  0  0  0  0  0
   33.6525   29.6715   88.4247 C   0  0  0  0  0  0  0  0  0  0  0  0
   33.4438   28.8236   87.2111 C   0  0  0  0  0  0  0  0  0  0  0  0
   32.9862   27.5588   87.2493 C   0  0  0  0  0  0  0  0  0  0  0  0
   32.7014   26.8021   88.5537 C   0  0  2  0  0  0  0  0  0  0  0  0
   31.1820   26.4673   88.5432 C   0  0  0  0  0  0  0  0  0  0  0  0
   30.7009   25.7271   87.2648 C   0  0  2  0  0  0  0  0  0  0  0  0
   31.1069   26.5090   85.9999 C   0  0  0  0  0  0  0  0  0  0  0  0
   32.5976   26.8505   85.9746 C   0  0  0  0  0  0  0  0  0  0  0  0
   29.2061   25.3933   87.2384 C   0  0  0  0  0  0  0  0  0  0  0  0
   28.6456   24.4320   86.4837 C   0  0  0  0  0  0  0  0  0  0  0  0
   28.3331   26.2566   88.1166 C   0  0  0  0  0  0  0  0  0  0  0  0
   33.5345   25.4949   88.5995 C   0  0  0  0  0  0  0  0  0  0  0  0
  2  1  1  1
  2  3  1  0
  3  4  1  0
  4  5  1  0
  5  6  2  0
  6  7  1  0
  7  8  1  0
  9  8  1  1
  9 10  1  0
 10 11  1  0
  9 12  1  0
 12 13  2  3
 12 14  1  0
  7 15  1  6
  7  2  1  0
 11  6  1  0
M  END
