
     RDKit          3D

 11 12  0  0  0  0  0  0  0  0999 V2000
   -7.7787   28.7454   67.3812 C   0  0  0  0  0  0  0  0  0  0  0  0
   -6.7052   27.6473   67.4217 C   0  0  2  0  0  0  0  0  0  0  0  0
   -6.0696   27.4992   68.8354 C   0  0  0  0  0  0  0  0  0  0  0  0
   -5.3808   28.8202   69.2286 C   0  0  0  0  0  0  0  0  0  0  0  0
   -4.4181   29.2339   68.1096 C   0  0  0  0  0  0  0  0  0  0  0  0
   -4.3738   28.1357   67.0298 C   0  0  2  0  0  0  0  0  0  0  0  0
   -5.6916   28.0063   66.4584 O   0  0  0  0  0  0  0  0  0  0  0  0
   -3.9811   26.7840   67.6565 C   0  0  0  0  0  0  0  0  0  0  0  0
   -4.9555   26.4359   68.7877 C   0  0  0  0  0  0  0  0  0  0  0  0
   -3.4193   28.5145   65.9022 C   0  0  0  0  0  0  0  0  0  0  0  0
   -7.3496   26.3399   66.9364 C   0  0  0  0  0  0  0  0  0  0  0  0
  2  1  1  1
  2  3  1  0
  3  4  1  0
  4  5  1  0
  5  6  1  0
  6  7  1  0
  6  8  1  0
  8  9  1  0
  6 10  1  6
  2 11  1  0
  7  2  1  0
  9  3  1  0
M  END
