
     RDKit          3D

 10 11  0  0  0  0  0  0  0  0999 V2000
    2.1197    1.8540   -1.3293 C   0  0  0  0  0  0  0  0  0  0  0  0
   20.4726   21.6279  -23.1480 C   0  0  0  0  0  0  0  0  0  0  0  0
    2.1238   -5.1060    0.0418 C   0  0  0  0  0  0  0  0  0  0  0  0
    1.1689  -25.7464    7.7860 C   0  0  0  0  0  0  0  0  0  0  0  0
   -0.4141    0.0733    2.0608 C   0  0  2  0  0  0  0  0  0  0  0  0
    0.6261   -2.4320    3.6970 C   0  0  0  0  0  0  0  0  0  0  0  0
    0.1954    5.9131    0.7978 C   0  0  2  0  0  0  0  0  0  0  0  0
   -3.9123    3.0937    5.2068 C   0  0  0  0  0  0  0  0  0  0  0  0
    4.7871   18.0223   -5.1605 C   0  0  0  0  0  0  0  0  0  0  0  0
   -1.4512    0.3551   -1.6751 C   0  0  0  0  0  0  0  0  0  0  0  0
  1  2  1  0
  2  3  2  0
  3  4  1  0
  5  4  1  1
  5  6  1  0
  7  6  1  6
  7  8  1  0
  8  9  1  0
  8 10  1  0
  7  2  1  0
  8  5  1  0
M  END
