
     RDKit          3D

 10 11  0  0  0  0  0  0  0  0999 V2000
    2.1044   24.2249   68.0140 C   0  0  0  0  0  0  0  0  0  0  0  0
   10.1451   27.2461   67.7230 C   0  0  0  0  0  0  0  0  0  0  0  0
    1.5786   24.1258   63.9425 C   0  0  2  0  0  0  0  0  0  0  0  0
   11.2096   25.4147   69.7760 C   0  0  0  0  0  0  0  0  0  0  0  0
   11.0645   27.8962   67.0635 C   0  0  0  0  0  0  0  0  0  0  0  0
   11.3654   23.2362   63.0290 C   0  0  2  0  0  0  0  0  0  0  0  0
   10.5216   26.8341   67.1140 C   0  0  0  0  0  0  0  0  0  0  0  0
   15.7733   26.7672   63.5555 C   0  0  0  0  0  0  0  0  0  0  0  0
   11.1500   28.1382   67.3317 C   0  0  0  0  0  0  0  0  0  0  0  0
    5.6512   25.3282   64.9856 C   0  0  0  0  0  0  0  0  0  0  0  0
  1  2  1  0
  2  3  1  0
  3  4  1  1
  4  5  1  0
  6  5  1  1
  6  7  1  0
  6  8  1  0
  8  9  2  3
  2 10  1  0
  8  2  1  0
  7  3  1  0
M  END
