
     RDKit          3D

 10 11  0  0  0  0  0  0  0  0999 V2000
   13.1965   21.8438   84.9505 C   0  0  0  0  0  0  0  0  0  0  0  0
   14.6796   21.9751   85.0365 C   0  0  0  0  0  0  0  0  0  0  0  0
   15.3575   23.1396   85.0912 C   0  0  0  0  0  0  0  0  0  0  0  0
   16.8718   23.1539   85.1552 C   0  0  0  0  0  0  0  0  0  0  0  0
   17.3949   21.7013   85.1544 C   0  0  0  0  0  0  0  0  0  0  0  0
   16.6099   20.8541   86.2104 C   0  0  0  0  0  0  0  0  0  0  0  0
   15.5237   20.7253   85.0802 C   0  0  0  0  0  0  0  0  0  0  0  0
   16.7503   20.7401   84.0610 C   0  0  0  0  0  0  0  0  0  0  0  0
   16.5184   21.3211   82.6600 C   0  0  0  0  0  0  0  0  0  0  0  0
   17.4595   19.3825   83.8841 C   0  0  0  0  0  0  0  0  0  0  0  0
  1  2  1  0
  2  3  2  0
  3  4  1  0
  5  4  1  0
  5  6  1  0
  7  6  1  0
  7  8  1  0
  8  9  1  0
  8 10  1  0
  7  2  1  0
  8  5  1  0
M  END
