
     RDKit          3D

 26 27  0  0  0  0  0  0  0  0999 V2000
   -2.0427   -0.5260   -0.8778 C   0  0  0  0  0  0  0  0  0  0  0  0
   -0.8578   -0.2137    0.0631 C   0  0  0  0  0  0  0  0  0  0  0  0
    0.3255   -1.2206   -0.1577 C   0  0  0  0  0  0  0  0  0  0  0  0
    1.4286   -1.0291    0.9113 C   0  0  0  0  0  0  0  0  0  0  0  0
    2.0134    0.3551    0.5577 C   0  0  0  0  0  0  0  0  0  0  0  0
    1.2535    0.7325   -0.7261 C   0  0  0  0  0  0  0  0  0  0  0  0
    1.0461   -0.6240   -1.3622 C   0  0  0  0  0  0  0  0  0  0  0  0
   -0.1605    1.0661   -0.3324 C   0  0  0  0  0  0  0  0  0  0  0  0
   -0.6787    2.2992   -0.2916 C   0  0  0  0  0  0  0  0  0  0  0  0
   -1.3727   -0.1614    1.5199 C   0  0  0  0  0  0  0  0  0  0  0  0
   -2.8531    0.2227   -0.7460 H   0  0  0  0  0  0  0  0  0  0  0  0
   -2.4557   -1.5313   -0.6472 H   0  0  0  0  0  0  0  0  0  0  0  0
   -1.7502   -0.5082   -1.9465 H   0  0  0  0  0  0  0  0  0  0  0  0
    0.0149   -2.2796   -0.2892 H   0  0  0  0  0  0  0  0  0  0  0  0
    2.2085   -1.8139    0.7900 H   0  0  0  0  0  0  0  0  0  0  0  0
    1.0603   -1.0867    1.9549 H   0  0  0  0  0  0  0  0  0  0  0  0
    1.8406    1.0936    1.3717 H   0  0  0  0  0  0  0  0  0  0  0  0
    3.1041    0.2788    0.3545 H   0  0  0  0  0  0  0  0  0  0  0  0
    1.7567    1.4808   -1.3756 H   0  0  0  0  0  0  0  0  0  0  0  0
    0.4336   -0.5793   -2.2885 H   0  0  0  0  0  0  0  0  0  0  0  0
    2.0048   -1.1412   -1.6031 H   0  0  0  0  0  0  0  0  0  0  0  0
   -0.0779    3.1568   -0.5761 H   0  0  0  0  0  0  0  0  0  0  0  0
   -1.7040    2.4568    0.0263 H   0  0  0  0  0  0  0  0  0  0  0  0
   -1.5791   -1.1883    1.8898 H   0  0  0  0  0  0  0  0  0  0  0  0
   -0.6455    0.3332    2.1974 H   0  0  0  0  0  0  0  0  0  0  0  0
   -2.3125    0.4279    1.5837 H   0  0  0  0  0  0  0  0  0  0  0  0
  1  2  1  0
  2  3  1  0
  3  4  1  0
  4  5  1  0
  5  6  1  0
  6  7  1  0
  6  8  1  0
  8  9  2  3
  2 10  1  0
  8  2  1  0
  7  3  1  0
  1 11  1  0
  1 12  1  0
  1 13  1  0
  3 14  1  0
  4 15  1  0
  4 16  1  0
  5 17  1  0
  5 18  1  0
  6 19  1  0
  7 20  1  0
  7 21  1  0
  9 22  1  0
  9 23  1  0
 10 24  1  0
 10 25  1  0
 10 26  1  0
M  END
$$$$
