
     RDKit          3D

 29 30  0  0  0  0  0  0  0  0999 V2000
    2.0364   -0.1468   -1.4272 C   0  0  0  0  0  0  0  0  0  0  0  0
    1.2105    0.2268   -0.1772 C   0  0  0  0  0  0  0  0  0  0  0  0
    0.6759   -1.0694    0.5459 C   0  0  0  0  0  0  0  0  0  0  0  0
   -0.2832   -1.8079   -0.4185 C   0  0  0  0  0  0  0  0  0  0  0  0
   -1.3452   -0.8106   -0.9418 C   0  0  0  0  0  0  0  0  0  0  0  0
   -1.1519    0.5729   -0.2566 C   0  0  0  0  0  0  0  0  0  0  0  0
    0.1382    1.0861   -0.5918 O   0  0  0  0  0  0  0  0  0  0  0  0
   -1.2441    0.3903    1.2858 C   0  0  0  0  0  0  0  0  0  0  0  0
   -0.1845   -0.6351    1.7568 C   0  0  0  0  0  0  0  0  0  0  0  0
   -2.2181    1.5609   -0.7409 C   0  0  0  0  0  0  0  0  0  0  0  0
    2.1357    1.0326    0.7604 C   0  0  0  0  0  0  0  0  0  0  0  0
    2.5329    0.7509   -1.8544 H   0  0  0  0  0  0  0  0  0  0  0  0
    2.8178   -0.8949   -1.1729 H   0  0  0  0  0  0  0  0  0  0  0  0
    1.3898   -0.5555   -2.2300 H   0  0  0  0  0  0  0  0  0  0  0  0
    1.5028   -1.7391    0.8694 H   0  0  0  0  0  0  0  0  0  0  0  0
   -0.7828   -2.6489    0.1113 H   0  0  0  0  0  0  0  0  0  0  0  0
    0.2752   -2.2666   -1.2612 H   0  0  0  0  0  0  0  0  0  0  0  0
   -1.2394   -0.6999   -2.0433 H   0  0  0  0  0  0  0  0  0  0  0  0
   -2.3642   -1.2053   -0.7333 H   0  0  0  0  0  0  0  0  0  0  0  0
   -1.0656    1.3661    1.7887 H   0  0  0  0  0  0  0  0  0  0  0  0
   -2.2596    0.0378    1.5724 H   0  0  0  0  0  0  0  0  0  0  0  0
   -0.6879   -1.5210    2.2035 H   0  0  0  0  0  0  0  0  0  0  0  0
    0.4486   -0.2058    2.5613 H   0  0  0  0  0  0  0  0  0  0  0  0
   -3.2367    1.1909   -0.4952 H   0  0  0  0  0  0  0  0  0  0  0  0
   -2.0716    2.5502   -0.2570 H   0  0  0  0  0  0  0  0  0  0  0  0
   -2.1435    1.6962   -1.8411 H   0  0  0  0  0  0  0  0  0  0  0  0
    1.5629    1.5017    1.5860 H   0  0  0  0  0  0  0  0  0  0  0  0
    2.9250    0.3791    1.1904 H   0  0  0  0  0  0  0  0  0  0  0  0
    2.6266    1.8642    0.2105 H   0  0  0  0  0  0  0  0  0  0  0  0
  1  2  1  0
  2  3  1  0
  3  4  1  0
  4  5  1  0
  5  6  1  0
  6  7  1  0
  6  8  1  0
  8  9  1  0
  6 10  1  0
  2 11  1  0
  7  2  1  0
  9  3  1  0
  1 12  1  0
  1 13  1  0
  1 14  1  0
  3 15  1  0
  4 16  1  0
  4 17  1  0
  5 18  1  0
  5 19  1  0
  8 20  1  0
  8 21  1  0
  9 22  1  0
  9 23  1  0
 10 24  1  0
 10 25  1  0
 10 26  1  0
 11 27  1  0
 11 28  1  0
 11 29  1  0
M  END
$$$$
