
     RDKit          3D

 26 27  0  0  0  0  0  0  0  0999 V2000
    2.6541   -0.9615    0.6357 C   0  0  0  0  0  0  0  0  0  0  0  0
    1.4623   -0.1096    0.3189 C   0  0  0  0  0  0  0  0  0  0  0  0
    1.2449    1.0763    0.9592 C   0  0  0  0  0  0  0  0  0  0  0  0
   -0.0165    1.8896    0.6059 C   0  0  0  0  0  0  0  0  0  0  0  0
   -0.8266    1.1621   -0.5226 C   0  0  0  0  0  0  0  0  0  0  0  0
    0.2119    0.7591   -1.5892 C   0  0  0  0  0  0  0  0  0  0  0  0
    0.4386   -0.5148   -0.7515 C   0  0  0  0  0  0  0  0  0  0  0  0
   -0.9946   -0.3444   -0.1818 C   0  0  0  0  0  0  0  0  0  0  0  0
   -2.0650   -1.0295   -1.0685 C   0  0  0  0  0  0  0  0  0  0  0  0
   -1.2546   -0.7491    1.2966 C   0  0  0  0  0  0  0  0  0  0  0  0
    2.6257   -1.2612    1.7043 H   0  0  0  0  0  0  0  0  0  0  0  0
    3.5859   -0.3908    0.4391 H   0  0  0  0  0  0  0  0  0  0  0  0
    2.6581   -1.8778    0.0092 H   0  0  0  0  0  0  0  0  0  0  0  0
    1.9291    1.4350    1.7219 H   0  0  0  0  0  0  0  0  0  0  0  0
    0.2874    2.8980    0.2531 H   0  0  0  0  0  0  0  0  0  0  0  0
   -0.6502    2.0175    1.5083 H   0  0  0  0  0  0  0  0  0  0  0  0
   -1.7257    1.6952   -0.9005 H   0  0  0  0  0  0  0  0  0  0  0  0
    1.0904    1.4374   -1.6979 H   0  0  0  0  0  0  0  0  0  0  0  0
   -0.2444    0.5494   -2.5808 H   0  0  0  0  0  0  0  0  0  0  0  0
    0.6472   -1.4437   -1.3252 H   0  0  0  0  0  0  0  0  0  0  0  0
   -1.9936   -2.1331   -0.9632 H   0  0  0  0  0  0  0  0  0  0  0  0
   -1.9606   -0.7890   -2.1455 H   0  0  0  0  0  0  0  0  0  0  0  0
   -3.0802   -0.7091   -0.7508 H   0  0  0  0  0  0  0  0  0  0  0  0
   -1.2311   -1.8558    1.3874 H   0  0  0  0  0  0  0  0  0  0  0  0
   -0.5314   -0.3553    2.0328 H   0  0  0  0  0  0  0  0  0  0  0  0
   -2.2611   -0.3950    1.6050 H   0  0  0  0  0  0  0  0  0  0  0  0
  1  2  1  0
  2  3  2  0
  3  4  1  0
  4  5  1  0
  5  6  1  0
  6  7  1  0
  7  8  1  0
  8  9  1  0
  8 10  1  0
  7  2  1  0
  8  5  1  0
  1 11  1  0
  1 12  1  0
  1 13  1  0
  3 14  1  0
  4 15  1  0
  4 16  1  0
  5 17  1  0
  6 18  1  0
  6 19  1  0
  7 20  1  0
  9 21  1  0
  9 22  1  0
  9 23  1  0
 10 24  1  0
 10 25  1  0
 10 26  1  0
M  END
$$$$
